Version 4
SHEET 1 880 680
WIRE 64 -32 -128 -32
WIRE 192 -32 64 -32
WIRE -128 -16 -128 -32
WIRE -16 64 -64 64
WIRE 112 64 64 64
WIRE 192 64 192 48
WIRE 192 64 112 64
WIRE 240 64 192 64
WIRE 416 64 304 64
WIRE 192 96 192 64
WIRE -128 144 -128 64
WIRE -128 144 -192 144
WIRE -80 144 -128 144
WIRE -80 192 -80 144
WIRE 128 192 128 144
WIRE 128 192 -80 192
WIRE -256 208 -256 144
WIRE 368 208 368 192
WIRE -128 304 -128 224
WIRE 192 304 192 272
WIRE 368 304 368 288
FLAG 192 304 0
FLAG 368 304 0
FLAG -128 304 0
FLAG 416 64 Output
FLAG 112 128 0
FLAG -64 128 0
FLAG -256 288 0
FLAG 64 -32 VCC
FLAG 704 -16 VCC
FLAG 704 64 0
FLAG -256 144 Input
SYMBOL npn 128 96 R0
SYMATTR InstName Q1
SYMATTR Value 2N3904
SYMBOL res 176 176 R0
SYMATTR InstName R1
SYMATTR Value 2.2k
SYMBOL res 352 192 R0
SYMATTR InstName R2
SYMATTR Value 45
SYMBOL res -144 128 R0
SYMATTR InstName R3
SYMATTR Value 2.2k
SYMBOL res -144 -32 R0
SYMATTR InstName R4
SYMATTR Value 4.7k
SYMBOL cap -256 160 R270
WINDOW 0 32 32 VTop 2
WINDOW 3 0 32 VBottom 2
SYMATTR InstName C1
SYMATTR Value 1µ
SYMBOL res 176 -48 R0
SYMATTR InstName R5
SYMATTR Value 4k7
SYMBOL cap 240 80 R270
WINDOW 0 32 32 VTop 2
WINDOW 3 0 32 VBottom 2
SYMATTR InstName C2
SYMATTR Value 1µ
SYMBOL cap 96 64 R0
SYMATTR InstName C4
SYMATTR Value 680p
SYMBOL ind -32 80 R270
WINDOW 0 32 56 VTop 2
WINDOW 3 5 56 VBottom 2
SYMATTR InstName L1
SYMATTR Value 3.3m
SYMBOL cap -80 64 R0
SYMATTR InstName C5
SYMATTR Value 10n
SYMBOL voltage -256 192 R0
WINDOW 123 24 124 Left 2
WINDOW 39 0 0 Left 2
SYMATTR Value2 AC 1
SYMATTR InstName V1
SYMATTR Value ""
SYMBOL voltage 704 -32 R0
SYMATTR InstName V2
SYMATTR Value 12V
SYMBOL EuropeanPolcap 304 208 R270
WINDOW 0 32 32 VTop 2
WINDOW 3 0 32 VBottom 2
SYMATTR InstName C6
SYMATTR Value 47µ
TEXT -288 336 Left 2 !.ac dec 10k 10k 500k
